##CIF_1.1

data_sm_global
#Used dictionaries
loop_
_audit_conform_dict_name
_audit_conform_dict_version
_audit_conform_dict_location
cif_core.dic 	2.4.2 	.
cif_pd.dic 		1.0.1 	.
cif_sm.dic 		0.1 	'redaktion.landolt-boernstein(at)springer.com'

#About this content and reference
_sm_credits_copyright
;PAULING FILE Multinaries Edition - 2012. SpringerMaterials Release 2014.
http://www.paulingfile.com
Unique LPF ID Number SD1632179
Project Coordinator: Shuichi Iwata
Section-Editors: Karin Cenzual (Crystal Structures), Hiroaki Okamoto (Phase 
Diagrams), Fritz Hulliger (Physical Properties)
(c) Springer & Material Phases Data System (MPDS), Switzerland & National 
Institute for Materials Science (NIMS), Japan 2014.
(Data generated pre-2002: (c) Springer & MPDS & NIMS; 
post-2001: (c) Springer & MPDS)
All Rights Reserved. Version 2014.06.
;

_audit_creation_method
;This data have been compiled from the crystallographic datasheet for 
"Li7La3Zr2O12 Crystal Structure" 
taken from SpringerMaterials (sm_isp_sd_1632179).
;

_publ_section_references
;Xie H., Alonso J.A., Li Y., Fernandez Diaz M.T., Goodenough J.B.: <i>Lithium distribution in aluminum-free cubic Li<sub>7</sub>La<sub>3</sub>Zr<sub>2</sub>O<sub>12</sub></i>. Chemistry of Materials <b>23</b> (2011) 3587-3589.
;

#Phase classification
_sm_phase_labels				'Li7La3Zr2O12 ht'
_chemical_name_mineral			''
_sm_chemical_compound_class		'oxide'
_sm_phase_prototype				'Li5 La3 Sb2 O12 '
_sm_pearson_symbol				'cI256'
_symmetry_Int_Tables_number		230
_sm_sample_details
;sample prepared from <sup>7</sup>Li<sub>2</sub>CO<sub>3</sub>, La[NO<sub>3</sub>]<sub>3</sub>[H<sub>2</sub>O]<sub>6</sub>, Zr(CH<sub>3</sub>COO)<sub>4</sub>, acetic acid, 
amounts of Li<sub>2</sub>CO<sub>3</sub> and La<sub>2</sub>O<sub>3</sub>, 
powder (determination of cell and structural parameters)
;
_sm_measurement_details
;automatic diffractometer (determination of cell parameters), 
automatic diffractometer; France, Grenoble, Institut Laue-Langevin ILL, D2B (determination of structural parameters), 
neutrons; &#x03bb; = 0.1594 nm (determination of cell and structural parameters)
;
_sm_interpretation_details
;complete structure determined, 
Rietveld refinement, multiphase, 
<i>R</i><sub>P</sub> = 0.0832; <i>wR</i><sub>P</sub> = 0.0877; <i>R</i><sub>B</sub> = 0.0284
;

data_sm_isp_SD1632179-standardized_unitcell
#Cell Parameters
_cell_length_a					12.9947
_cell_length_b					12.9947
_cell_length_c					12.9947
_cell_angle_alpha				90
_cell_angle_beta				90
_cell_angle_gamma				90
_sm_length_ratio_ab				1.000
_sm_length_ratio_bc				1.000
_sm_length_ratio_ca				1.000
_cell_volume 					2194.31
_symmetry_space_group_name_H-M	'Ia-3d'
_symmetry_Int_Tables_number		230
_cell_formula_units_Z			8
_sm_cell_transformation
;No transformation from published to standardized cell parameters necessary.
;

#Atom Coordinates
loop_
_atom_site_label
_atom_site_type_symbol
_atom_site_Wyckoff_symbol
_sm_site_symmetry
_atom_site_fract_x
_atom_site_fract_y
_atom_site_fract_z
_atom_site_occupancy
_sm_coordination_number
_sm_atomic_environment_type
O 'O' .96h .1 0.1007 0.19449 0.28209 1 1 'single atom, Li'
Li2 'Li' .96h .1 0.1004 0.1802 0.4032 0.442 1 'observed interatomic distances too short, Li'
Li1 'Li' .24d .-4.. 0.375 0 0.25 0.564 8 'square prism (cube), Li<sub>4</sub>O<sub>4</sub>'
La 'La' .24c .2.22 0.125 0 0.25 1 8 'square antiprism, O<sub>8</sub>'
Zr 'Zr' .16a ..-3. 0 0 0 1 6 'octahedron, O<sub>6</sub>'

_sm_atom_site_transformation
;No transformation from published to standardized cell parameters necessary.
;

#Isotropic Displacement Parameters
loop_
_atom_site_label_1
_atom_site_U_iso_or_equiv
_sm_atom_site_isotropic_displacement_parameter_type
_atom_site_B_equiv_geom_mean
Li1 0.00026(2) 'Uiso' ?
Li2 0.00034(3) 'Uiso' ?
La 0.000124 'Uiso' ?
Zr 0.000107 'Uiso' ?
O 0.000174 'Uiso' ?

data_sm_isp_SD1632179-published_cell
#Cell Parameters
_cell_length_a					12.9947(6)
_cell_length_b					12.9947(6)
_cell_length_c					12.9947(6)
_cell_angle_alpha				90
_cell_angle_beta				90
_cell_angle_gamma				90
_sm_length_ratio_ab				1.000
_sm_length_ratio_bc				1.000
_sm_length_ratio_ca				1.000
_cell_volume 					2194.31
_symmetry_space_group_name_H-M	'Ia-3d'
_symmetry_Int_Tables_number		230
_cell_formula_units_Z			8

#Atom Coordinates
loop_
_atom_site_label
_atom_site_type_symbol
_atom_site_Wyckoff_symbol
_sm_site_symmetry
_atom_site_fract_x
_atom_site_fract_y
_atom_site_fract_z
_atom_site_occupancy
_sm_coordination_number
_sm_atomic_environment_type
Li1 'Li' .24d .-4.. 0.375 0 0.25 0.564(12) ? '?'
Li2 'Li' .96h .1 0.6802(8) 0.5968(8) 0.1004(9) 0.442(3) ? '?'
La 'La' .24c .2.22 0.125 0 0.25 1 ? '?'
Zr 'Zr' .16a ..-3. 0 0 0 1 ? '?'
O 'O' .96h .1 0.28209(10) 0.1007(11) 0.19449(13) 1 ? '?'

#Isotropic Displacement Parameters
loop_
_atom_site_label_1
_atom_site_U_iso_or_equiv
_sm_atom_site_isotropic_displacement_parameter_type
_atom_site_B_equiv_geom_mean
Li1 0.00026(2) 'Uiso' ?
Li2 0.00034(3) 'Uiso' ?
La 0.000124 'Uiso' ?
Zr 0.000107 'Uiso' ?
O 0.000174 'Uiso' ?

data_sm_isp_SD1632179-niggli_reduced_cell
#Cell Parameters
_cell_length_a					11.2537
_cell_length_b					11.2537
_cell_length_c					11.2537
_cell_angle_alpha				109.471
_cell_angle_beta				109.471
_cell_angle_gamma				109.471
_sm_length_ratio_ab				1.000
_sm_length_ratio_bc				1.000
_sm_length_ratio_ca				1.000
_cell_volume 					1097.15
_symmetry_space_group_name_H-M	''
_symmetry_Int_Tables_number		?
_cell_formula_units_Z			8

#Atom Coordinates
loop_
_atom_site_label
_atom_site_type_symbol
_atom_site_Wyckoff_symbol
_sm_site_symmetry
_atom_site_fract_x
_atom_site_fract_y
_atom_site_fract_z
_atom_site_occupancy
_sm_coordination_number
_sm_atomic_environment_type
? ? ? ? ? ? ? ? ? ?

